output/CTMT/Cargas_BT_DU03_CTMT.dss
New "Load.BT_6425_M1" bus1="UC15168.1.4" phases=1 conn=delta model=2 kv=0.22 kw = 1357.192509413693 pf=0.92 status=variable vmaxpu=1.5 vminpu=0.93 daily="RES_2_DU" 
New "Load.BT_6425_M2" bus1="UC15168.1.4" phases=1 conn=delta model=3 kv=0.22 kw = 1357.192509413693 pf=0.92 status=variable vmaxpu=1.5 vminpu=0.93 daily="RES_2_DU"
 
New "Load.BT_7259_M1" bus1="UC15169.1.2.3.4" phases=3 conn=delta model=2 kv=0.38 kw = 1020.3710107270829 pf=0.92 status=variable vmaxpu=1.5 vminpu=0.93 daily="RES_2_DU" 
New "Load.BT_7259_M2" bus1="UC15169.1.2.3.4" phases=3 conn=delta model=3 kv=0.38 kw = 1020.3710107270829 pf=0.92 status=variable vmaxpu=1.5 vminpu=0.93 daily="RES_2_DU"
 
New "Load.BT_352_M1" bus1="UC15174.1.4" phases=1 conn=delta model=2 kv=0.22 kw = 984.6808065737225 pf=0.92 status=variable vmaxpu=1.5 vminpu=0.93 daily="RES_10_DU" 
New "Load.BT_352_M2" bus1="UC15174.1.4" phases=1 conn=delta model=3 kv=0.22 kw = 984.6808065737225 pf=0.92 status=variable vmaxpu=1.5 vminpu=0.93 daily="RES_10_DU"
 
New "Load.BT_2941_M1" bus1="UC13788.3.4" phases=1 conn=delta model=2 kv=0.22 kw = 312.0552120184769 pf=0.92 status=variable vmaxpu=1.5 vminpu=0.93 daily="RES_2_DU" 
New "Load.BT_2941_M2" bus1="UC13788.3.4" phases=1 conn=delta model=3 kv=0.22 kw = 312.0552120184769 pf=0.92 status=variable vmaxpu=1.5 vminpu=0.93 daily="RES_2_DU"
 
New "Load.BT_714_M1" bus1="UC15175.1.2.3.4" phases=3 conn=delta model=2 kv=0.38 kw = 1619.7151480959037 pf=0.92 status=variable vmaxpu=1.5 vminpu=0.93 daily="RES_2_DU" 
New "Load.BT_714_M2" bus1="UC15175.1.2.3.4" phases=3 conn=delta model=3 kv=0.38 kw = 1619.7151480959037 pf=0.92 status=variable vmaxpu=1.5 vminpu=0.93 daily="RES_2_DU"
 
New "Load.BT_7479_M1" bus1="ET1_159.2.3.4" phases=2 conn=delta model=2 kv=0.38 kw = 1119.634776112387 pf=0.92 status=variable vmaxpu=1.5 vminpu=0.93 daily="RES_3_DU" 
New "Load.BT_7479_M2" bus1="ET1_159.2.3.4" phases=2 conn=delta model=3 kv=0.38 kw = 1119.634776112387 pf=0.92 status=variable vmaxpu=1.5 vminpu=0.93 daily="RES_3_DU"
 
New "Load.BT_7575_M1" bus1="UC15178.3.4" phases=1 conn=delta model=2 kv=0.22 kw = 1477.3400851175131 pf=0.92 status=variable vmaxpu=1.5 vminpu=0.93 daily="RES_1_DU" 
New "Load.BT_7575_M2" bus1="UC15178.3.4" phases=1 conn=delta model=3 kv=0.22 kw = 1477.3400851175131 pf=0.92 status=variable vmaxpu=1.5 vminpu=0.93 daily="RES_1_DU"
 
New "Load.BT_6438_M1" bus1="UC15180.1.4" phases=1 conn=delta model=2 kv=0.22 kw = 856.9135187174047 pf=0.92 status=variable vmaxpu=1.5 vminpu=0.93 daily="RES_2_DU" 
New "Load.BT_6438_M2" bus1="UC15180.1.4" phases=1 conn=delta model=3 kv=0.22 kw = 856.9135187174047 pf=0.92 status=variable vmaxpu=1.5 vminpu=0.93 daily="RES_2_DU"
 
New "Load.BT_387_M1" bus1="UC15581.1.2.3.4" phases=3 conn=delta model=2 kv=0.38 kw = 0.0 pf=0.92 status=variable vmaxpu=1.5 vminpu=0.93 daily="RES_3_DU" 
New "Load.BT_387_M2" bus1="UC15581.1.2.3.4" phases=3 conn=delta model=3 kv=0.38 kw = 0.0 pf=0.92 status=variable vmaxpu=1.5 vminpu=0.93 daily="RES_3_DU"
 
New "Load.BT_7928_M1" bus1="UC15838.3.4" phases=1 conn=delta model=2 kv=0.22 kw = 0.0 pf=0.92 status=variable vmaxpu=1.5 vminpu=0.93 daily="RES_7_DU" 
New "Load.BT_7928_M2" bus1="UC15838.3.4" phases=1 conn=delta model=3 kv=0.22 kw = 0.0 pf=0.92 status=variable vmaxpu=1.5 vminpu=0.93 daily="RES_7_DU"
 
New "Load.BT_8263_M1" bus1="UC14653.1.2.3.4" phases=3 conn=delta model=2 kv=0.38 kw = 0.0 pf=0.92 status=variable vmaxpu=1.5 vminpu=0.93 daily="RES_3_DU" 
New "Load.BT_8263_M2" bus1="UC14653.1.2.3.4" phases=3 conn=delta model=3 kv=0.38 kw = 0.0 pf=0.92 status=variable vmaxpu=1.5 vminpu=0.93 daily="RES_3_DU"
 
New "Load.BT_7436_M1" bus1="UC10919.3.4" phases=1 conn=delta model=2 kv=0.22 kw = 0.0 pf=0.92 status=variable vmaxpu=1.5 vminpu=0.93 daily="RES_3_DU" 
New "Load.BT_7436_M2" bus1="UC10919.3.4" phases=1 conn=delta model=3 kv=0.22 kw = 0.0 pf=0.92 status=variable vmaxpu=1.5 vminpu=0.93 daily="RES_3_DU"
 
New "Load.BT_2214_M1" bus1="UC16152.1.4" phases=1 conn=delta model=2 kv=0.22 kw = 0.0 pf=0.92 status=variable vmaxpu=1.5 vminpu=0.93 daily="RES_7_DU" 
New "Load.BT_2214_M2" bus1="UC16152.1.4" phases=1 conn=delta model=3 kv=0.22 kw = 0.0 pf=0.92 status=variable vmaxpu=1.5 vminpu=0.93 daily="RES_7_DU"
 
New "Load.BT_2922_M1" bus1="UC2530.1.4" phases=1 conn=delta model=2 kv=0.22 kw = 0.0 pf=0.92 status=variable vmaxpu=1.5 vminpu=0.93 daily="RES_3_DU" 
New "Load.BT_2922_M2" bus1="UC2530.1.4" phases=1 conn=delta model=3 kv=0.22 kw = 0.0 pf=0.92 status=variable vmaxpu=1.5 vminpu=0.93 daily="RES_3_DU"
 
New "Load.BT_8626_M1" bus1="UC16140.1.2.3.4" phases=3 conn=delta model=2 kv=0.38 kw = 0.0 pf=0.92 status=variable vmaxpu=1.5 vminpu=0.93 daily="RES_3_DU" 
New "Load.BT_8626_M2" bus1="UC16140.1.2.3.4" phases=3 conn=delta model=3 kv=0.38 kw = 0.0 pf=0.92 status=variable vmaxpu=1.5 vminpu=0.93 daily="RES_3_DU"
 
New "Load.BT_288_M1" bus1="UC16156.3.4" phases=1 conn=delta model=2 kv=0.22 kw = 0.0 pf=0.92 status=variable vmaxpu=1.5 vminpu=0.93 daily="RES_7_DU" 
New "Load.BT_288_M2" bus1="UC16156.3.4" phases=1 conn=delta model=3 kv=0.22 kw = 0.0 pf=0.92 status=variable vmaxpu=1.5 vminpu=0.93 daily="RES_7_DU"
 
New "Load.BT_715_M1" bus1="UC16132.3.4" phases=1 conn=delta model=2 kv=0.22 kw = 0.0 pf=0.92 status=variable vmaxpu=1.5 vminpu=0.93 daily="COM_5_DU" 
New "Load.BT_715_M2" bus1="UC16132.3.4" phases=1 conn=delta model=3 kv=0.22 kw = 0.0 pf=0.92 status=variable vmaxpu=1.5 vminpu=0.93 daily="COM_5_DU"
 
New "Load.BT_1454_M1" bus1="UC8216.3.4" phases=1 conn=delta model=2 kv=0.22 kw = 0.0 pf=0.92 status=variable vmaxpu=1.5 vminpu=0.93 daily="RES_3_DU" 
New "Load.BT_1454_M2" bus1="UC8216.3.4" phases=1 conn=delta model=3 kv=0.22 kw = 0.0 pf=0.92 status=variable vmaxpu=1.5 vminpu=0.93 daily="RES_3_DU"
 
New "Load.BT_1169_M1" bus1="UC16139.2.4" phases=1 conn=delta model=2 kv=0.22 kw = 0.0 pf=0.92 status=variable vmaxpu=1.5 vminpu=0.93 daily="RES_3_DU" 
New "Load.BT_1169_M2" bus1="UC16139.2.4" phases=1 conn=delta model=3 kv=0.22 kw = 0.0 pf=0.92 status=variable vmaxpu=1.5 vminpu=0.93 daily="RES_3_DU"
 
New "Load.BT_2362_M1" bus1="UC16135.3.4" phases=1 conn=delta model=2 kv=0.22 kw = 0.0 pf=0.92 status=variable vmaxpu=1.5 vminpu=0.93 daily="RES_3_DU" 
New "Load.BT_2362_M2" bus1="UC16135.3.4" phases=1 conn=delta model=3 kv=0.22 kw = 0.0 pf=0.92 status=variable vmaxpu=1.5 vminpu=0.93 daily="RES_3_DU"
 
New "Load.BT_7328_M1" bus1="UC16138.3.4" phases=1 conn=delta model=2 kv=0.22 kw = 0.0 pf=0.92 status=variable vmaxpu=1.5 vminpu=0.93 daily="COM_5_DU" 
New "Load.BT_7328_M2" bus1="UC16138.3.4" phases=1 conn=delta model=3 kv=0.22 kw = 0.0 pf=0.92 status=variable vmaxpu=1.5 vminpu=0.93 daily="COM_5_DU"
 
New "Load.BT_1673_M1" bus1="UC8555.3.4" phases=1 conn=delta model=2 kv=0.22 kw = 0.0 pf=0.92 status=variable vmaxpu=1.5 vminpu=0.93 daily="RES_3_DU" 
New "Load.BT_1673_M2" bus1="UC8555.3.4" phases=1 conn=delta model=3 kv=0.22 kw = 0.0 pf=0.92 status=variable vmaxpu=1.5 vminpu=0.93 daily="RES_3_DU"
 
New "Load.BT_1124_M1" bus1="UC15362.2.3.4" phases=2 conn=delta model=2 kv=0.38 kw = 0.0 pf=0.92 status=variable vmaxpu=1.5 vminpu=0.93 daily="RES_7_DU" 
New "Load.BT_1124_M2" bus1="UC15362.2.3.4" phases=2 conn=delta model=3 kv=0.38 kw = 0.0 pf=0.92 status=variable vmaxpu=1.5 vminpu=0.93 daily="RES_7_DU"
 
New "Load.BT_84_M1" bus1="UC5102.1.4" phases=1 conn=delta model=2 kv=0.22 kw = 0.0 pf=0.92 status=variable vmaxpu=1.5 vminpu=0.93 daily="RES_3_DU" 
New "Load.BT_84_M2" bus1="UC5102.1.4" phases=1 conn=delta model=3 kv=0.22 kw = 0.0 pf=0.92 status=variable vmaxpu=1.5 vminpu=0.93 daily="RES_3_DU"
 
New "Load.BT_1414_M1" bus1="UC7753.1.4" phases=1 conn=delta model=2 kv=0.22 kw = 0.0 pf=0.92 status=variable vmaxpu=1.5 vminpu=0.93 daily="COM_5_DU" 
New "Load.BT_1414_M2" bus1="UC7753.1.4" phases=1 conn=delta model=3 kv=0.22 kw = 0.0 pf=0.92 status=variable vmaxpu=1.5 vminpu=0.93 daily="COM_5_DU"
 
New "Load.BT_6437_M1" bus1="UC12439.3.4" phases=1 conn=delta model=2 kv=0.22 kw = 41.27685810552578 pf=0.92 status=variable vmaxpu=1.5 vminpu=0.93 daily="RES_3_DU" 
New "Load.BT_6437_M2" bus1="UC12439.3.4" phases=1 conn=delta model=3 kv=0.22 kw = 41.27685810552578 pf=0.92 status=variable vmaxpu=1.5 vminpu=0.93 daily="RES_3_DU"
 
New "Load.BT_2368_M1" bus1="UC9732.1.4" phases=1 conn=delta model=2 kv=0.22 kw = 123.8314333406654 pf=0.92 status=variable vmaxpu=1.5 vminpu=0.93 daily="RES_2_DU" 
New "Load.BT_2368_M2" bus1="UC9732.1.4" phases=1 conn=delta model=3 kv=0.22 kw = 123.8314333406654 pf=0.92 status=variable vmaxpu=1.5 vminpu=0.93 daily="RES_2_DU"
 
New "Load.BT_491_M1" bus1="UC1855.1.4" phases=1 conn=delta model=2 kv=0.22 kw = 638.9701960378336 pf=0.92 status=variable vmaxpu=1.5 vminpu=0.93 daily="RES_2_DU" 
New "Load.BT_491_M2" bus1="UC1855.1.4" phases=1 conn=delta model=3 kv=0.22 kw = 638.9701960378336 pf=0.92 status=variable vmaxpu=1.5 vminpu=0.93 daily="RES_2_DU"
 
New "Load.BT_1491_M1" bus1="UC1136.2.4" phases=1 conn=delta model=2 kv=0.22 kw = 800.2442691089509 pf=0.92 status=variable vmaxpu=1.5 vminpu=0.93 daily="RES_7_DU" 
New "Load.BT_1491_M2" bus1="UC1136.2.4" phases=1 conn=delta model=3 kv=0.22 kw = 800.2442691089509 pf=0.92 status=variable vmaxpu=1.5 vminpu=0.93 daily="RES_7_DU"
 
New "Load.BT_2368_M1" bus1="UC9732.2.4" phases=1 conn=delta model=2 kv=0.22 kw = 174.20854814617525 pf=0.92 status=variable vmaxpu=1.5 vminpu=0.93 daily="RES_9_DU" 
New "Load.BT_2368_M2" bus1="UC9732.2.4" phases=1 conn=delta model=3 kv=0.22 kw = 174.20854814617525 pf=0.92 status=variable vmaxpu=1.5 vminpu=0.93 daily="RES_9_DU"
 
New "Load.BT_8141_M1" bus1="UC15851.3.4" phases=1 conn=delta model=2 kv=0.22 kw = 627.3915069814175 pf=0.92 status=variable vmaxpu=1.5 vminpu=0.93 daily="RES_7_DU" 
New "Load.BT_8141_M2" bus1="UC15851.3.4" phases=1 conn=delta model=3 kv=0.22 kw = 627.3915069814175 pf=0.92 status=variable vmaxpu=1.5 vminpu=0.93 daily="RES_7_DU"
 
New "Load.BT_7354_M1" bus1="UC15850.3.1.4" phases=2 conn=delta model=2 kv=0.38 kw = 89.69564802499187 pf=0.92 status=variable vmaxpu=1.5 vminpu=0.93 daily="RES_1_DU" 
New "Load.BT_7354_M2" bus1="UC15850.3.1.4" phases=2 conn=delta model=3 kv=0.38 kw = 89.69564802499187 pf=0.92 status=variable vmaxpu=1.5 vminpu=0.93 daily="RES_1_DU"
 
New "Load.BT_918_M1" bus1="UC15688.1.4" phases=1 conn=delta model=2 kv=0.22 kw = 82.55371621105157 pf=0.92 status=variable vmaxpu=1.5 vminpu=0.93 daily="RES_3_DU" 
New "Load.BT_918_M2" bus1="UC15688.1.4" phases=1 conn=delta model=3 kv=0.22 kw = 82.55371621105157 pf=0.92 status=variable vmaxpu=1.5 vminpu=0.93 daily="RES_3_DU"
 
New "Load.BT_2932_M1" bus1="UC10153.2.4" phases=1 conn=delta model=2 kv=0.22 kw = 1031.9214526381445 pf=0.92 status=variable vmaxpu=1.5 vminpu=0.93 daily="RES_3_DU" 
New "Load.BT_2932_M2" bus1="UC10153.2.4" phases=1 conn=delta model=3 kv=0.22 kw = 1031.9214526381445 pf=0.92 status=variable vmaxpu=1.5 vminpu=0.93 daily="RES_3_DU"
 
New "Load.BT_6949_M1" bus1="UC15497.1.4" phases=1 conn=delta model=2 kv=0.22 kw = 1535.509773424251 pf=0.92 status=variable vmaxpu=1.5 vminpu=0.93 daily="RES_2_DU" 
New "Load.BT_6949_M2" bus1="UC15497.1.4" phases=1 conn=delta model=3 kv=0.22 kw = 1535.509773424251 pf=0.92 status=variable vmaxpu=1.5 vminpu=0.93 daily="RES_2_DU"
 
New "Load.BT_6949_M1" bus1="UC15497.3.4" phases=1 conn=delta model=2 kv=0.22 kw = 163.45749200967836 pf=0.92 status=variable vmaxpu=1.5 vminpu=0.93 daily="RES_2_DU" 
New "Load.BT_6949_M2" bus1="UC15497.3.4" phases=1 conn=delta model=3 kv=0.22 kw = 163.45749200967836 pf=0.92 status=variable vmaxpu=1.5 vminpu=0.93 daily="RES_2_DU"
 
New "Load.BT_1531_M1" bus1="UC5544.2.4" phases=1 conn=delta model=2 kv=0.22 kw = 817.2874600483917 pf=0.92 status=variable vmaxpu=1.5 vminpu=0.93 daily="RES_2_DU" 
New "Load.BT_1531_M2" bus1="UC5544.2.4" phases=1 conn=delta model=3 kv=0.22 kw = 817.2874600483917 pf=0.92 status=variable vmaxpu=1.5 vminpu=0.93 daily="RES_2_DU"
 
New "Load.BT_293_M1" bus1="UC15499.3.4" phases=1 conn=delta model=2 kv=0.22 kw = 584.4843653679407 pf=0.92 status=variable vmaxpu=1.5 vminpu=0.93 daily="RES_2_DU" 
New "Load.BT_293_M2" bus1="UC15499.3.4" phases=1 conn=delta model=3 kv=0.22 kw = 584.4843653679407 pf=0.92 status=variable vmaxpu=1.5 vminpu=0.93 daily="RES_2_DU"
 
New "Load.BT_1432_M1" bus1="UC8603.1.2.3.4" phases=3 conn=delta model=2 kv=0.38 kw = 1457.1153194030865 pf=0.92 status=variable vmaxpu=1.5 vminpu=0.93 daily="COM_1_DU" 
New "Load.BT_1432_M2" bus1="UC8603.1.2.3.4" phases=3 conn=delta model=3 kv=0.38 kw = 1457.1153194030865 pf=0.92 status=variable vmaxpu=1.5 vminpu=0.93 daily="COM_1_DU"
 
New "Load.BT_8049_M1" bus1="UC15509.1.2.4" phases=2 conn=delta model=2 kv=0.38 kw = 29.7195440017597 pf=0.92 status=variable vmaxpu=1.5 vminpu=0.93 daily="RES_2_DU" 
New "Load.BT_8049_M2" bus1="UC15509.1.2.4" phases=2 conn=delta model=3 kv=0.38 kw = 29.7195440017597 pf=0.92 status=variable vmaxpu=1.5 vminpu=0.93 daily="RES_2_DU"
 
New "Load.BT_2623_M1" bus1="UC15510.1.2.3.4" phases=3 conn=delta model=2 kv=0.38 kw = 383.01316967166844 pf=0.92 status=variable vmaxpu=1.5 vminpu=0.93 daily="COM_1_DU" 
New "Load.BT_2623_M2" bus1="UC15510.1.2.3.4" phases=3 conn=delta model=3 kv=0.38 kw = 383.01316967166844 pf=0.92 status=variable vmaxpu=1.5 vminpu=0.93 daily="COM_1_DU"
 
New "Load.BT_3013_M1" bus1="UC6671.1.4" phases=1 conn=delta model=2 kv=0.22 kw = 227.84983734682436 pf=0.92 status=variable vmaxpu=1.5 vminpu=0.93 daily="RES_2_DU" 
New "Load.BT_3013_M2" bus1="UC6671.1.4" phases=1 conn=delta model=3 kv=0.22 kw = 227.84983734682436 pf=0.92 status=variable vmaxpu=1.5 vminpu=0.93 daily="RES_2_DU"
 
New "Load.BT_6930_M1" bus1="UC9626.3.4" phases=1 conn=delta model=2 kv=0.22 kw = 866.8200333846579 pf=0.92 status=variable vmaxpu=1.5 vminpu=0.93 daily="RES_2_DU" 
New "Load.BT_6930_M2" bus1="UC9626.3.4" phases=1 conn=delta model=3 kv=0.22 kw = 866.8200333846579 pf=0.92 status=variable vmaxpu=1.5 vminpu=0.93 daily="RES_2_DU"
 
New "Load.BT_2941_M1" bus1="UC13002.3.4" phases=1 conn=delta model=2 kv=0.22 kw = 6.661098602985538 pf=0.92 status=variable vmaxpu=1.5 vminpu=0.93 daily="COM_1_DU" 
New "Load.BT_2941_M2" bus1="UC13002.3.4" phases=1 conn=delta model=3 kv=0.22 kw = 6.661098602985538 pf=0.92 status=variable vmaxpu=1.5 vminpu=0.93 daily="COM_1_DU"
 
New "Load.BT_7308_M1" bus1="UC13331.1.4" phases=1 conn=delta model=2 kv=0.22 kw = 0.0 pf=0.92 status=variable vmaxpu=1.5 vminpu=0.93 daily="RES_2_DU" 
New "Load.BT_7308_M2" bus1="UC13331.1.4" phases=1 conn=delta model=3 kv=0.22 kw = 0.0 pf=0.92 status=variable vmaxpu=1.5 vminpu=0.93 daily="RES_2_DU"
 
New "Load.BT_3010_M1" bus1="UC14890.1.2.3.4" phases=3 conn=delta model=2 kv=0.38 kw = 411.12035869100913 pf=0.92 status=variable vmaxpu=1.5 vminpu=0.93 daily="RES_2_DU" 
New "Load.BT_3010_M2" bus1="UC14890.1.2.3.4" phases=3 conn=delta model=3 kv=0.38 kw = 411.12035869100913 pf=0.92 status=variable vmaxpu=1.5 vminpu=0.93 daily="RES_2_DU"
 
New "Load.BT_3010_M1" bus1="UC14890.1.2.3.4" phases=3 conn=delta model=2 kv=0.38 kw = 480.46596136178175 pf=0.92 status=variable vmaxpu=1.5 vminpu=0.93 daily="RES_2_DU" 
New "Load.BT_3010_M2" bus1="UC14890.1.2.3.4" phases=3 conn=delta model=3 kv=0.38 kw = 480.46596136178175 pf=0.92 status=variable vmaxpu=1.5 vminpu=0.93 daily="RES_2_DU"
 
New "Load.BT_1267_M1" bus1="UC15137.1.2.3.4" phases=3 conn=delta model=2 kv=0.38 kw = 6611.140363463146 pf=0.92 status=variable vmaxpu=1.5 vminpu=0.93 daily="IND_1_DU" 
New "Load.BT_1267_M2" bus1="UC15137.1.2.3.4" phases=3 conn=delta model=3 kv=0.38 kw = 6611.140363463146 pf=0.92 status=variable vmaxpu=1.5 vminpu=0.93 daily="IND_1_DU"
 
New "Load.BT_1115_M1" bus1="UC7113.1.4" phases=1 conn=delta model=2 kv=0.22 kw = 738.0353427103659 pf=0.92 status=variable vmaxpu=1.5 vminpu=0.93 daily="RES_2_DU" 
New "Load.BT_1115_M2" bus1="UC7113.1.4" phases=1 conn=delta model=3 kv=0.22 kw = 738.0353427103659 pf=0.92 status=variable vmaxpu=1.5 vminpu=0.93 daily="RES_2_DU"
 
New "Load.BT_7226_M1" bus1="UC9718.1.4" phases=1 conn=delta model=2 kv=0.22 kw = 326.9149840193567 pf=0.92 status=variable vmaxpu=1.5 vminpu=0.93 daily="RES_2_DU" 
New "Load.BT_7226_M2" bus1="UC9718.1.4" phases=1 conn=delta model=3 kv=0.22 kw = 326.9149840193567 pf=0.92 status=variable vmaxpu=1.5 vminpu=0.93 daily="RES_2_DU"
 
New "Load.BT_7764_M1" bus1="UC10594.3.1.4" phases=2 conn=delta model=2 kv=0.38 kw = 476.08538566738133 pf=0.92 status=variable vmaxpu=1.5 vminpu=0.93 daily="RES_11_DU" 
New "Load.BT_7764_M2" bus1="UC10594.3.1.4" phases=2 conn=delta model=3 kv=0.38 kw = 476.08538566738133 pf=0.92 status=variable vmaxpu=1.5 vminpu=0.93 daily="RES_11_DU"
 
New "Load.BT_1983_M1" bus1="UC15149.1.2.4" phases=2 conn=delta model=2 kv=0.38 kw = 544.8583066989278 pf=0.92 status=variable vmaxpu=1.5 vminpu=0.93 daily="RES_2_DU" 
New "Load.BT_1983_M2" bus1="UC15149.1.2.4" phases=2 conn=delta model=3 kv=0.38 kw = 544.8583066989278 pf=0.92 status=variable vmaxpu=1.5 vminpu=0.93 daily="RES_2_DU"
 
New "Load.BT_6423_M1" bus1="UC13667.1.2.3.4" phases=3 conn=delta model=2 kv=0.38 kw = 992.302893695099 pf=0.92 status=variable vmaxpu=1.5 vminpu=0.93 daily="RES_7_DU" 
New "Load.BT_6423_M2" bus1="UC13667.1.2.3.4" phases=3 conn=delta model=3 kv=0.38 kw = 992.302893695099 pf=0.92 status=variable vmaxpu=1.5 vminpu=0.93 daily="RES_7_DU"
 
New "Load.BT_6614_M1" bus1="UC15154.3.4" phases=1 conn=delta model=2 kv=0.22 kw = 1039.4142741719645 pf=0.92 status=variable vmaxpu=1.5 vminpu=0.93 daily="RES_1_DU" 
New "Load.BT_6614_M2" bus1="UC15154.3.4" phases=1 conn=delta model=3 kv=0.22 kw = 1039.4142741719645 pf=0.92 status=variable vmaxpu=1.5 vminpu=0.93 daily="RES_1_DU"
 
New "Load.BT_8374_M1" bus1="UC15150.1.2.3.4" phases=3 conn=delta model=2 kv=0.38 kw = 168.41074934330496 pf=0.92 status=variable vmaxpu=1.5 vminpu=0.93 daily="RES_2_DU" 
New "Load.BT_8374_M2" bus1="UC15150.1.2.3.4" phases=3 conn=delta model=3 kv=0.38 kw = 168.41074934330496 pf=0.92 status=variable vmaxpu=1.5 vminpu=0.93 daily="RES_2_DU"
 
New "Load.BT_3034_M1" bus1="UC14783.1.2.3.4" phases=3 conn=delta model=2 kv=0.38 kw = 257.56938134858405 pf=0.92 status=variable vmaxpu=1.5 vminpu=0.93 daily="RES_2_DU" 
New "Load.BT_3034_M2" bus1="UC14783.1.2.3.4" phases=3 conn=delta model=3 kv=0.38 kw = 257.56938134858405 pf=0.92 status=variable vmaxpu=1.5 vminpu=0.93 daily="RES_2_DU"
 
New "Load.BT_1488_M1" bus1="UC10551.2.4" phases=1 conn=delta model=2 kv=0.22 kw = 617.4232345373852 pf=0.92 status=variable vmaxpu=1.5 vminpu=0.93 daily="RES_11_DU" 
New "Load.BT_1488_M2" bus1="UC10551.2.4" phases=1 conn=delta model=3 kv=0.22 kw = 617.4232345373852 pf=0.92 status=variable vmaxpu=1.5 vminpu=0.93 daily="RES_11_DU"
 
New "Load.BT_927_M1" bus1="UC15130.3.4" phases=1 conn=delta model=2 kv=0.22 kw = 46.627690220898764 pf=0.92 status=variable vmaxpu=1.5 vminpu=0.93 daily="COM_1_DU" 
New "Load.BT_927_M2" bus1="UC15130.3.4" phases=1 conn=delta model=3 kv=0.22 kw = 46.627690220898764 pf=0.92 status=variable vmaxpu=1.5 vminpu=0.93 daily="COM_1_DU"
 
New "Load.BT_15_M1" bus1="UC11345.3.4" phases=1 conn=delta model=2 kv=0.22 kw = 547.5980476667436 pf=0.92 status=variable vmaxpu=1.5 vminpu=0.93 daily="RES_8_DU" 
New "Load.BT_15_M2" bus1="UC11345.3.4" phases=1 conn=delta model=3 kv=0.22 kw = 547.5980476667436 pf=0.92 status=variable vmaxpu=1.5 vminpu=0.93 daily="RES_8_DU"
 
New "Load.BT_6637_M1" bus1="UC1871.2.4" phases=1 conn=delta model=2 kv=0.22 kw = 807.3014033456849 pf=0.92 status=variable vmaxpu=1.5 vminpu=0.93 daily="RES_13_DU" 
New "Load.BT_6637_M2" bus1="UC1871.2.4" phases=1 conn=delta model=3 kv=0.22 kw = 807.3014033456849 pf=0.92 status=variable vmaxpu=1.5 vminpu=0.93 daily="RES_13_DU"
 
New "Load.BT_387_M1" bus1="UC15581.1.2.3.4" phases=3 conn=delta model=2 kv=0.38 kw = 0.0 pf=0.92 status=variable vmaxpu=1.5 vminpu=0.93 daily="RES_3_DU" 
New "Load.BT_387_M2" bus1="UC15581.1.2.3.4" phases=3 conn=delta model=3 kv=0.38 kw = 0.0 pf=0.92 status=variable vmaxpu=1.5 vminpu=0.93 daily="RES_3_DU"
 
New "Load.BT_8263_M1" bus1="UC14653.1.2.3.4" phases=3 conn=delta model=2 kv=0.38 kw = 0.0 pf=0.92 status=variable vmaxpu=1.5 vminpu=0.93 daily="RES_3_DU" 
New "Load.BT_8263_M2" bus1="UC14653.1.2.3.4" phases=3 conn=delta model=3 kv=0.38 kw = 0.0 pf=0.92 status=variable vmaxpu=1.5 vminpu=0.93 daily="RES_3_DU"
 
New "Load.BT_1454_M1" bus1="UC8216.3.4" phases=1 conn=delta model=2 kv=0.22 kw = 0.0 pf=0.92 status=variable vmaxpu=1.5 vminpu=0.93 daily="RES_3_DU" 
New "Load.BT_1454_M2" bus1="UC8216.3.4" phases=1 conn=delta model=3 kv=0.22 kw = 0.0 pf=0.92 status=variable vmaxpu=1.5 vminpu=0.93 daily="RES_3_DU"
 
New "Load.BT_1314_M1" bus1="UC16125.1.2.3.4" phases=3 conn=delta model=2 kv=0.38 kw = 0.0 pf=0.92 status=variable vmaxpu=1.5 vminpu=0.93 daily="RES_7_DU" 
New "Load.BT_1314_M2" bus1="UC16125.1.2.3.4" phases=3 conn=delta model=3 kv=0.38 kw = 0.0 pf=0.92 status=variable vmaxpu=1.5 vminpu=0.93 daily="RES_7_DU"
 
New "Load.BT_8044_M1" bus1="UC16120.1.2.3.4" phases=3 conn=delta model=2 kv=0.38 kw = 0.0 pf=0.92 status=variable vmaxpu=1.5 vminpu=0.93 daily="RES_3_DU" 
New "Load.BT_8044_M2" bus1="UC16120.1.2.3.4" phases=3 conn=delta model=3 kv=0.38 kw = 0.0 pf=0.92 status=variable vmaxpu=1.5 vminpu=0.93 daily="RES_3_DU"
 
New "Load.BT_6919_M1" bus1="UC16117.1.4" phases=1 conn=delta model=2 kv=0.22 kw = 0.0 pf=0.92 status=variable vmaxpu=1.5 vminpu=0.93 daily="RES_3_DU" 
New "Load.BT_6919_M2" bus1="UC16117.1.4" phases=1 conn=delta model=3 kv=0.22 kw = 0.0 pf=0.92 status=variable vmaxpu=1.5 vminpu=0.93 daily="RES_3_DU"
 
New "Load.BT_1445_M1" bus1="UC2901.2.4" phases=1 conn=delta model=2 kv=0.22 kw = 0.0 pf=0.92 status=variable vmaxpu=1.5 vminpu=0.93 daily="RES_3_DU" 
New "Load.BT_1445_M2" bus1="UC2901.2.4" phases=1 conn=delta model=3 kv=0.22 kw = 0.0 pf=0.92 status=variable vmaxpu=1.5 vminpu=0.93 daily="RES_3_DU"
 
New "Load.BT_3107_M1" bus1="UC8431.2.4" phases=1 conn=delta model=2 kv=0.22 kw = 0.0 pf=0.92 status=variable vmaxpu=1.5 vminpu=0.93 daily="RES_3_DU" 
New "Load.BT_3107_M2" bus1="UC8431.2.4" phases=1 conn=delta model=3 kv=0.22 kw = 0.0 pf=0.92 status=variable vmaxpu=1.5 vminpu=0.93 daily="RES_3_DU"
 
New "Load.BT_8422_M1" bus1="UC16128.1.4" phases=1 conn=delta model=2 kv=0.22 kw = 0.0 pf=0.92 status=variable vmaxpu=1.5 vminpu=0.93 daily="RES_7_DU" 
New "Load.BT_8422_M2" bus1="UC16128.1.4" phases=1 conn=delta model=3 kv=0.22 kw = 0.0 pf=0.92 status=variable vmaxpu=1.5 vminpu=0.93 daily="RES_7_DU"
 
New "Load.BT_8514_M1" bus1="UC15685.1.2.3.4" phases=3 conn=delta model=2 kv=0.38 kw = 487.92547266869065 pf=0.92 status=variable vmaxpu=1.5 vminpu=0.93 daily="COM_1_DU" 
New "Load.BT_8514_M2" bus1="UC15685.1.2.3.4" phases=3 conn=delta model=3 kv=0.38 kw = 487.92547266869065 pf=0.92 status=variable vmaxpu=1.5 vminpu=0.93 daily="COM_1_DU"
 
New "Load.BT_2932_M1" bus1="UC10153.2.4" phases=1 conn=delta model=2 kv=0.22 kw = 678.5962547068465 pf=0.92 status=variable vmaxpu=1.5 vminpu=0.93 daily="RES_2_DU" 
New "Load.BT_2932_M2" bus1="UC10153.2.4" phases=1 conn=delta model=3 kv=0.22 kw = 678.5962547068465 pf=0.92 status=variable vmaxpu=1.5 vminpu=0.93 daily="RES_2_DU"
 
New "Load.BT_7928_M1" bus1="UC15838.2.4" phases=1 conn=delta model=2 kv=0.22 kw = 113.92491867341218 pf=0.92 status=variable vmaxpu=1.5 vminpu=0.93 daily="RES_2_DU" 
New "Load.BT_7928_M2" bus1="UC15838.2.4" phases=1 conn=delta model=3 kv=0.22 kw = 113.92491867341218 pf=0.92 status=variable vmaxpu=1.5 vminpu=0.93 daily="RES_2_DU"
 
New "Load.BT_7378_M1" bus1="UC15839.2.3.4" phases=2 conn=delta model=2 kv=0.38 kw = 0.0 pf=0.92 status=variable vmaxpu=1.5 vminpu=0.93 daily="RES_9_DU" 
New "Load.BT_7378_M2" bus1="UC15839.2.3.4" phases=2 conn=delta model=3 kv=0.38 kw = 0.0 pf=0.92 status=variable vmaxpu=1.5 vminpu=0.93 daily="RES_9_DU"
 
New "Load.BT_2395_M1" bus1="UC14029.1.4" phases=1 conn=delta model=2 kv=0.22 kw = 861.8667760510314 pf=0.92 status=variable vmaxpu=1.5 vminpu=0.93 daily="RES_2_DU" 
New "Load.BT_2395_M2" bus1="UC14029.1.4" phases=1 conn=delta model=3 kv=0.22 kw = 861.8667760510314 pf=0.92 status=variable vmaxpu=1.5 vminpu=0.93 daily="RES_2_DU"
 
New "Load.BT_8159_M1" bus1="UC15841.2.4" phases=1 conn=delta model=2 kv=0.22 kw = 26.84726066595089 pf=0.92 status=variable vmaxpu=1.5 vminpu=0.93 daily="RES_4_DU" 
New "Load.BT_8159_M2" bus1="UC15841.2.4" phases=1 conn=delta model=3 kv=0.22 kw = 26.84726066595089 pf=0.92 status=variable vmaxpu=1.5 vminpu=0.93 daily="RES_4_DU"
 
New "Load.BT_1678_M1" bus1="UC358.3.1.4" phases=2 conn=delta model=2 kv=0.38 kw = 1039.131382065744 pf=0.92 status=variable vmaxpu=1.5 vminpu=0.93 daily="COM_1_DU" 
New "Load.BT_1678_M2" bus1="UC358.3.1.4" phases=2 conn=delta model=3 kv=0.38 kw = 1039.131382065744 pf=0.92 status=variable vmaxpu=1.5 vminpu=0.93 daily="COM_1_DU"
 
New "Load.BT_474_M1" bus1="UC6892.2.4" phases=1 conn=delta model=2 kv=0.22 kw = 376.44755735562285 pf=0.92 status=variable vmaxpu=1.5 vminpu=0.93 daily="RES_2_DU" 
New "Load.BT_474_M2" bus1="UC6892.2.4" phases=1 conn=delta model=3 kv=0.22 kw = 376.44755735562285 pf=0.92 status=variable vmaxpu=1.5 vminpu=0.93 daily="RES_2_DU"
 
New "Load.BT_3034_M1" bus1="UC14783.1.2.3.4" phases=3 conn=delta model=2 kv=0.38 kw = 227.84983734682436 pf=0.92 status=variable vmaxpu=1.5 vminpu=0.93 daily="RES_2_DU" 
New "Load.BT_3034_M2" bus1="UC14783.1.2.3.4" phases=3 conn=delta model=3 kv=0.38 kw = 227.84983734682436 pf=0.92 status=variable vmaxpu=1.5 vminpu=0.93 daily="RES_2_DU"
 
New "Load.BT_7427_M1" bus1="UC15490.2.4" phases=1 conn=delta model=2 kv=0.22 kw = 975.7916947244433 pf=0.92 status=variable vmaxpu=1.5 vminpu=0.93 daily="RES_2_DU" 
New "Load.BT_7427_M2" bus1="UC15490.2.4" phases=1 conn=delta model=3 kv=0.22 kw = 975.7916947244433 pf=0.92 status=variable vmaxpu=1.5 vminpu=0.93 daily="RES_2_DU"
 
New "Load.BT_6397_M1" bus1="UC15492.1.2.3.4" phases=3 conn=delta model=2 kv=0.38 kw = 94.11188933890571 pf=0.92 status=variable vmaxpu=1.5 vminpu=0.93 daily="RES_2_DU" 
New "Load.BT_6397_M2" bus1="UC15492.1.2.3.4" phases=3 conn=delta model=3 kv=0.38 kw = 94.11188933890571 pf=0.92 status=variable vmaxpu=1.5 vminpu=0.93 daily="RES_2_DU"
 
New "Load.BT_855_M1" bus1="UC15495.1.2.3.4" phases=3 conn=delta model=2 kv=0.38 kw = 219.81625389852275 pf=0.92 status=variable vmaxpu=1.5 vminpu=0.93 daily="COM_1_DU" 
New "Load.BT_855_M2" bus1="UC15495.1.2.3.4" phases=3 conn=delta model=3 kv=0.38 kw = 219.81625389852275 pf=0.92 status=variable vmaxpu=1.5 vminpu=0.93 daily="COM_1_DU"
 
New "Load.BT_937_M1" bus1="UC15493.2.4" phases=1 conn=delta model=2 kv=0.22 kw = 604.2973947024473 pf=0.92 status=variable vmaxpu=1.5 vminpu=0.93 daily="RES_2_DU" 
New "Load.BT_937_M2" bus1="UC15493.2.4" phases=1 conn=delta model=3 kv=0.22 kw = 604.2973947024473 pf=0.92 status=variable vmaxpu=1.5 vminpu=0.93 daily="RES_2_DU"
 
New "Load.BT_7261_M1" bus1="UC15496.3.4" phases=1 conn=delta model=2 kv=0.38 kw = 79.25211733802587 pf=0.92 status=variable vmaxpu=1.5 vminpu=0.93 daily="RES_2_DU" 
New "Load.BT_7261_M2" bus1="UC15496.3.4" phases=1 conn=delta model=3 kv=0.38 kw = 79.25211733802587 pf=0.92 status=variable vmaxpu=1.5 vminpu=0.93 daily="RES_2_DU"
 
New "Load.BT_358_M1" bus1="UC14400.1.4" phases=1 conn=delta model=2 kv=0.22 kw = 455.6996746936487 pf=0.92 status=variable vmaxpu=1.5 vminpu=0.93 daily="RES_2_DU" 
New "Load.BT_358_M2" bus1="UC14400.1.4" phases=1 conn=delta model=3 kv=0.22 kw = 455.6996746936487 pf=0.92 status=variable vmaxpu=1.5 vminpu=0.93 daily="RES_2_DU"
 
New "Load.BT_490_M1" bus1="UC6077.1.4" phases=1 conn=delta model=2 kv=0.22 kw = 341.77475602023657 pf=0.92 status=variable vmaxpu=1.5 vminpu=0.93 daily="RES_2_DU" 
New "Load.BT_490_M2" bus1="UC6077.1.4" phases=1 conn=delta model=3 kv=0.22 kw = 341.77475602023657 pf=0.92 status=variable vmaxpu=1.5 vminpu=0.93 daily="RES_2_DU"
 
New "Load.BT_1862_M1" bus1="UC7595.2.3.4" phases=2 conn=delta model=2 kv=0.38 kw = 1261.1849681157064 pf=0.92 status=variable vmaxpu=1.5 vminpu=0.93 daily="RES_7_DU" 
New "Load.BT_1862_M2" bus1="UC7595.2.3.4" phases=2 conn=delta model=3 kv=0.38 kw = 1261.1849681157064 pf=0.92 status=variable vmaxpu=1.5 vminpu=0.93 daily="RES_7_DU"
 
New "Load.BT_1488_M1" bus1="UC10551.3.4" phases=1 conn=delta model=2 kv=0.22 kw = 476.08538566738133 pf=0.92 status=variable vmaxpu=1.5 vminpu=0.93 daily="RES_11_DU" 
New "Load.BT_1488_M2" bus1="UC10551.3.4" phases=1 conn=delta model=3 kv=0.22 kw = 476.08538566738133 pf=0.92 status=variable vmaxpu=1.5 vminpu=0.93 daily="RES_11_DU"
 
New "Load.BT_2624_M1" bus1="UC8865.3.4" phases=1 conn=delta model=2 kv=0.22 kw = 1829.3106267301157 pf=0.92 status=variable vmaxpu=1.5 vminpu=0.93 daily="RES_13_DU" 
New "Load.BT_2624_M2" bus1="UC8865.3.4" phases=1 conn=delta model=3 kv=0.22 kw = 1829.3106267301157 pf=0.92 status=variable vmaxpu=1.5 vminpu=0.93 daily="RES_13_DU"
 
New "Load.BT_1840_M1" bus1="UC5847.2.4" phases=1 conn=delta model=2 kv=0.22 kw = 14.85977200087985 pf=0.92 status=variable vmaxpu=1.5 vminpu=0.93 daily="RES_2_DU" 
New "Load.BT_1840_M2" bus1="UC5847.2.4" phases=1 conn=delta model=3 kv=0.22 kw = 14.85977200087985 pf=0.92 status=variable vmaxpu=1.5 vminpu=0.93 daily="RES_2_DU"
 
New "Load.BT_1452_M1" bus1="UC8287.2.4" phases=1 conn=delta model=2 kv=0.22 kw = 882.5955648955838 pf=0.92 status=variable vmaxpu=1.5 vminpu=0.93 daily="COM_1_DU" 
New "Load.BT_1452_M2" bus1="UC8287.2.4" phases=1 conn=delta model=3 kv=0.22 kw = 882.5955648955838 pf=0.92 status=variable vmaxpu=1.5 vminpu=0.93 daily="COM_1_DU"
 
New "Load.BT_3034_M1" bus1="UC14783.1.2.3.4" phases=3 conn=delta model=2 kv=0.38 kw = 411.12035869100913 pf=0.92 status=variable vmaxpu=1.5 vminpu=0.93 daily="RES_2_DU" 
New "Load.BT_3034_M2" bus1="UC14783.1.2.3.4" phases=3 conn=delta model=3 kv=0.38 kw = 411.12035869100913 pf=0.92 status=variable vmaxpu=1.5 vminpu=0.93 daily="RES_2_DU"
 
New "Load.BT_929_M1" bus1="UC8105.2.4" phases=1 conn=delta model=2 kv=0.22 kw = 89.92483114030476 pf=0.92 status=variable vmaxpu=1.5 vminpu=0.93 daily="COM_1_DU" 
New "Load.BT_929_M2" bus1="UC8105.2.4" phases=1 conn=delta model=3 kv=0.22 kw = 89.92483114030476 pf=0.92 status=variable vmaxpu=1.5 vminpu=0.93 daily="COM_1_DU"
 
New "Load.BT_3034_M1" bus1="UC14783.1.2.3.4" phases=3 conn=delta model=2 kv=0.38 kw = 1288.6685119656427 pf=0.92 status=variable vmaxpu=1.5 vminpu=0.93 daily="RES_4_DU" 
New "Load.BT_3034_M2" bus1="UC14783.1.2.3.4" phases=3 conn=delta model=3 kv=0.38 kw = 1288.6685119656427 pf=0.92 status=variable vmaxpu=1.5 vminpu=0.93 daily="RES_4_DU"
 
New "Load.BT_8197_M1" bus1="UC11184.3.4" phases=1 conn=delta model=2 kv=0.22 kw = 438.89121491211716 pf=0.92 status=variable vmaxpu=1.5 vminpu=0.93 daily="RES_11_DU" 
New "Load.BT_8197_M2" bus1="UC11184.3.4" phases=1 conn=delta model=3 kv=0.22 kw = 438.89121491211716 pf=0.92 status=variable vmaxpu=1.5 vminpu=0.93 daily="RES_11_DU"
 
New "Load.BT_3010_M1" bus1="UC14890.1.2.3.4" phases=3 conn=delta model=2 kv=0.38 kw = 620.9895528285458 pf=0.92 status=variable vmaxpu=1.5 vminpu=0.93 daily="RES_7_DU" 
New "Load.BT_3010_M2" bus1="UC14890.1.2.3.4" phases=3 conn=delta model=3 kv=0.38 kw = 620.9895528285458 pf=0.92 status=variable vmaxpu=1.5 vminpu=0.93 daily="RES_7_DU"
 
New "Load.BT_377_M1" bus1="UC15109.1.4" phases=1 conn=delta model=2 kv=0.22 kw = 1266.291501529297 pf=0.92 status=variable vmaxpu=1.5 vminpu=0.93 daily="RES_1_DU" 
New "Load.BT_377_M2" bus1="UC15109.1.4" phases=1 conn=delta model=3 kv=0.22 kw = 1266.291501529297 pf=0.92 status=variable vmaxpu=1.5 vminpu=0.93 daily="RES_1_DU"
 
New "Load.BT_1750_M1" bus1="UC10549.2.4" phases=1 conn=delta model=2 kv=0.22 kw = 4.995823952239154 pf=0.92 status=variable vmaxpu=1.5 vminpu=0.93 daily="COM_1_DU" 
New "Load.BT_1750_M2" bus1="UC10549.2.4" phases=1 conn=delta model=3 kv=0.22 kw = 4.995823952239154 pf=0.92 status=variable vmaxpu=1.5 vminpu=0.93 daily="COM_1_DU"
 
New "Load.BT_639_M1" bus1="UC15090.3.4" phases=1 conn=delta model=2 kv=0.22 kw = 0.0 pf=0.92 status=variable vmaxpu=1.5 vminpu=0.93 daily="RES_3_DU" 
New "Load.BT_639_M2" bus1="UC15090.3.4" phases=1 conn=delta model=3 kv=0.22 kw = 0.0 pf=0.92 status=variable vmaxpu=1.5 vminpu=0.93 daily="RES_3_DU"
 
New "Load.BT_2214_M1" bus1="UC11074.2.4" phases=1 conn=delta model=2 kv=0.22 kw = 0.0 pf=0.92 status=variable vmaxpu=1.5 vminpu=0.93 daily="RES_3_DU" 
New "Load.BT_2214_M2" bus1="UC11074.2.4" phases=1 conn=delta model=3 kv=0.22 kw = 0.0 pf=0.92 status=variable vmaxpu=1.5 vminpu=0.93 daily="RES_3_DU"
 
New "Load.BT_8198_M1" bus1="UC15673.2.3.4" phases=2 conn=delta model=2 kv=0.38 kw = 0.0 pf=0.92 status=variable vmaxpu=1.5 vminpu=0.93 daily="RES_3_DU" 
New "Load.BT_8198_M2" bus1="UC15673.2.3.4" phases=2 conn=delta model=3 kv=0.38 kw = 0.0 pf=0.92 status=variable vmaxpu=1.5 vminpu=0.93 daily="RES_3_DU"
 
New "Load.BT_6795_M1" bus1="UC14821.3.4" phases=1 conn=delta model=2 kv=0.22 kw = 0.0 pf=0.92 status=variable vmaxpu=1.5 vminpu=0.93 daily="RES_3_DU" 
New "Load.BT_6795_M2" bus1="UC14821.3.4" phases=1 conn=delta model=3 kv=0.22 kw = 0.0 pf=0.92 status=variable vmaxpu=1.5 vminpu=0.93 daily="RES_3_DU"
 
New "Load.BT_768_M1" bus1="UC12804.1.4" phases=1 conn=delta model=2 kv=0.22 kw = 0.0 pf=0.92 status=variable vmaxpu=1.5 vminpu=0.93 daily="RES_3_DU" 
New "Load.BT_768_M2" bus1="UC12804.1.4" phases=1 conn=delta model=3 kv=0.22 kw = 0.0 pf=0.92 status=variable vmaxpu=1.5 vminpu=0.93 daily="RES_3_DU"
 
New "Load.BT_539_M1" bus1="UC11814.2.4" phases=1 conn=delta model=2 kv=0.22 kw = 404.21834706074304 pf=0.92 status=variable vmaxpu=1.5 vminpu=0.93 daily="RES_6_DU" 
New "Load.BT_539_M2" bus1="UC11814.2.4" phases=1 conn=delta model=3 kv=0.22 kw = 404.21834706074304 pf=0.92 status=variable vmaxpu=1.5 vminpu=0.93 daily="RES_6_DU"
 
New "Load.BT_6846_M1" bus1="UC15821.1.2.3.4" phases=3 conn=delta model=2 kv=0.38 kw = 69.34560267077262 pf=0.92 status=variable vmaxpu=1.5 vminpu=0.93 daily="RES_2_DU" 
New "Load.BT_6846_M2" bus1="UC15821.1.2.3.4" phases=3 conn=delta model=3 kv=0.38 kw = 69.34560267077262 pf=0.92 status=variable vmaxpu=1.5 vminpu=0.93 daily="RES_2_DU"
 
New "Load.BT_826_M1" bus1="UC7495.2.4" phases=1 conn=delta model=2 kv=0.22 kw = 499.58239522391534 pf=0.92 status=variable vmaxpu=1.5 vminpu=0.93 daily="COM_1_DU" 
New "Load.BT_826_M2" bus1="UC7495.2.4" phases=1 conn=delta model=3 kv=0.22 kw = 499.58239522391534 pf=0.92 status=variable vmaxpu=1.5 vminpu=0.93 daily="COM_1_DU"
 
New "Load.BT_84_M1" bus1="UC5102.3.4" phases=1 conn=delta model=2 kv=0.22 kw = 503.027276342258 pf=0.92 status=variable vmaxpu=1.5 vminpu=0.93 daily="RES_6_DU" 
New "Load.BT_84_M2" bus1="UC5102.3.4" phases=1 conn=delta model=3 kv=0.22 kw = 503.027276342258 pf=0.92 status=variable vmaxpu=1.5 vminpu=0.93 daily="RES_6_DU"
 
New "Load.BT_2347_M1" bus1="UC1753.3.4" phases=1 conn=delta model=2 kv=0.22 kw = 638.9701960378336 pf=0.92 status=variable vmaxpu=1.5 vminpu=0.93 daily="RES_2_DU" 
New "Load.BT_2347_M2" bus1="UC1753.3.4" phases=1 conn=delta model=3 kv=0.22 kw = 638.9701960378336 pf=0.92 status=variable vmaxpu=1.5 vminpu=0.93 daily="RES_2_DU"
 
New "Load.BT_8197_M1" bus1="UC11184.3.4" phases=1 conn=delta model=2 kv=0.22 kw = 167.24020622032822 pf=0.92 status=variable vmaxpu=1.5 vminpu=0.93 daily="RES_9_DU" 
New "Load.BT_8197_M2" bus1="UC11184.3.4" phases=1 conn=delta model=3 kv=0.22 kw = 167.24020622032822 pf=0.92 status=variable vmaxpu=1.5 vminpu=0.93 daily="RES_9_DU"
 
New "Load.BT_2623_M1" bus1="UC15510.1.2.3.4" phases=3 conn=delta model=2 kv=0.38 kw = 3.778619070309619 pf=0.92 status=variable vmaxpu=1.5 vminpu=0.93 daily="COM_12_DU" 
New "Load.BT_2623_M2" bus1="UC15510.1.2.3.4" phases=3 conn=delta model=3 kv=0.38 kw = 3.778619070309619 pf=0.92 status=variable vmaxpu=1.5 vminpu=0.93 daily="COM_12_DU"
 
New "Load.BT_8426_M1" bus1="UC15793.1.2.3.4" phases=3 conn=delta model=2 kv=0.38 kw = 133.22197205971077 pf=0.92 status=variable vmaxpu=1.5 vminpu=0.93 daily="COM_1_DU" 
New "Load.BT_8426_M2" bus1="UC15793.1.2.3.4" phases=3 conn=delta model=3 kv=0.38 kw = 133.22197205971077 pf=0.92 status=variable vmaxpu=1.5 vminpu=0.93 daily="COM_1_DU"
 
New "Load.BT_7702_M1" bus1="UC15796.3.4" phases=1 conn=delta model=2 kv=0.22 kw = 346.72801335386316 pf=0.92 status=variable vmaxpu=1.5 vminpu=0.93 daily="RES_2_DU" 
New "Load.BT_7702_M2" bus1="UC15796.3.4" phases=1 conn=delta model=3 kv=0.22 kw = 346.72801335386316 pf=0.92 status=variable vmaxpu=1.5 vminpu=0.93 daily="RES_2_DU"
 
New "Load.BT_236_M1" bus1="UC15798.1.2.3.4" phases=3 conn=delta model=2 kv=0.38 kw = 3.33635484615633 pf=0.92 status=variable vmaxpu=1.5 vminpu=0.93 daily="RES_12_DU" 
New "Load.BT_236_M2" bus1="UC15798.1.2.3.4" phases=3 conn=delta model=3 kv=0.38 kw = 3.33635484615633 pf=0.92 status=variable vmaxpu=1.5 vminpu=0.93 daily="RES_12_DU"
 
New "Load.BT_146_M1" bus1="UC10578.1.4" phases=1 conn=delta model=2 kv=0.22 kw = 736.2247275802348 pf=0.92 status=variable vmaxpu=1.5 vminpu=0.93 daily="RES_7_DU" 
New "Load.BT_146_M2" bus1="UC10578.1.4" phases=1 conn=delta model=3 kv=0.22 kw = 736.2247275802348 pf=0.92 status=variable vmaxpu=1.5 vminpu=0.93 daily="RES_7_DU"
 
New "Load.BT_3019_M1" bus1="UC9738.1.4" phases=1 conn=delta model=2 kv=0.22 kw = 458.1141266688421 pf=0.92 status=variable vmaxpu=1.5 vminpu=0.93 daily="RES_6_DU" 
New "Load.BT_3019_M2" bus1="UC9738.1.4" phases=1 conn=delta model=3 kv=0.22 kw = 458.1141266688421 pf=0.92 status=variable vmaxpu=1.5 vminpu=0.93 daily="RES_6_DU"
 
New "Load.BT_2092_M1" bus1="UC6242.2.4" phases=1 conn=delta model=2 kv=0.22 kw = 232.80309468045098 pf=0.92 status=variable vmaxpu=1.5 vminpu=0.93 daily="RES_2_DU" 
New "Load.BT_2092_M2" bus1="UC6242.2.4" phases=1 conn=delta model=3 kv=0.22 kw = 232.80309468045098 pf=0.92 status=variable vmaxpu=1.5 vminpu=0.93 daily="RES_2_DU"
 
New "Load.BT_539_M1" bus1="UC11814.2.4" phases=1 conn=delta model=2 kv=0.22 kw = 141.6896191588892 pf=0.92 status=variable vmaxpu=1.5 vminpu=0.93 daily="RES_9_DU" 
New "Load.BT_539_M2" bus1="UC11814.2.4" phases=1 conn=delta model=3 kv=0.22 kw = 141.6896191588892 pf=0.92 status=variable vmaxpu=1.5 vminpu=0.93 daily="RES_9_DU"
 
New "Load.BT_1424_M1" bus1="UC6619.3.4" phases=1 conn=delta model=2 kv=0.22 kw = 688.5027693740997 pf=0.92 status=variable vmaxpu=1.5 vminpu=0.93 daily="RES_2_DU" 
New "Load.BT_1424_M2" bus1="UC6619.3.4" phases=1 conn=delta model=3 kv=0.22 kw = 688.5027693740997 pf=0.92 status=variable vmaxpu=1.5 vminpu=0.93 daily="RES_2_DU"
 
New "Load.BT_6443_M1" bus1="UC15805.1.4" phases=1 conn=delta model=2 kv=0.22 kw = 0.0 pf=0.92 status=variable vmaxpu=1.5 vminpu=0.93 daily="RES_2_DU" 
New "Load.BT_6443_M2" bus1="UC15805.1.4" phases=1 conn=delta model=3 kv=0.22 kw = 0.0 pf=0.92 status=variable vmaxpu=1.5 vminpu=0.93 daily="RES_2_DU"
 
New "Load.BT_8141_M1" bus1="UC15807.1.2.3.4" phases=3 conn=delta model=2 kv=0.38 kw = 2203.158362937467 pf=0.92 status=variable vmaxpu=1.5 vminpu=0.93 daily="COM_1_DU" 
New "Load.BT_8141_M2" bus1="UC15807.1.2.3.4" phases=3 conn=delta model=3 kv=0.38 kw = 2203.158362937467 pf=0.92 status=variable vmaxpu=1.5 vminpu=0.93 daily="COM_1_DU"
 
New "Load.BT_296_M1" bus1="UC14335.2.4" phases=1 conn=delta model=2 kv=0.22 kw = 24.76628666813308 pf=0.92 status=variable vmaxpu=1.5 vminpu=0.93 daily="RES_2_DU" 
New "Load.BT_296_M2" bus1="UC14335.2.4" phases=1 conn=delta model=3 kv=0.22 kw = 24.76628666813308 pf=0.92 status=variable vmaxpu=1.5 vminpu=0.93 daily="RES_2_DU"
 
New "Load.BT_121_M1" bus1="UC12650.2.3.4" phases=2 conn=delta model=2 kv=0.38 kw = 896.3795152018664 pf=0.92 status=variable vmaxpu=1.5 vminpu=0.93 daily="RES_11_DU" 
New "Load.BT_121_M2" bus1="UC12650.2.3.4" phases=2 conn=delta model=3 kv=0.38 kw = 896.3795152018664 pf=0.92 status=variable vmaxpu=1.5 vminpu=0.93 daily="RES_11_DU"
 
New "Load.BT_12_M1" bus1="UC10383.2.4" phases=1 conn=delta model=2 kv=0.22 kw = 355.3854382181975 pf=0.92 status=variable vmaxpu=1.5 vminpu=0.93 daily="RES_9_DU" 
New "Load.BT_12_M2" bus1="UC10383.2.4" phases=1 conn=delta model=3 kv=0.22 kw = 355.3854382181975 pf=0.92 status=variable vmaxpu=1.5 vminpu=0.93 daily="RES_9_DU"
 
New "Load.BT_8263_M1" bus1="UC14653.1.2.3.4" phases=3 conn=delta model=2 kv=0.38 kw = 787.567916046632 pf=0.92 status=variable vmaxpu=1.5 vminpu=0.93 daily="RES_2_DU" 
New "Load.BT_8263_M2" bus1="UC14653.1.2.3.4" phases=3 conn=delta model=3 kv=0.38 kw = 787.567916046632 pf=0.92 status=variable vmaxpu=1.5 vminpu=0.93 daily="RES_2_DU"
 
New "Load.BT_2343_M1" bus1="UC5977.2.4" phases=1 conn=delta model=2 kv=0.22 kw = 252.61612401495745 pf=0.92 status=variable vmaxpu=1.5 vminpu=0.93 daily="RES_2_DU" 
New "Load.BT_2343_M2" bus1="UC5977.2.4" phases=1 conn=delta model=3 kv=0.22 kw = 252.61612401495745 pf=0.92 status=variable vmaxpu=1.5 vminpu=0.93 daily="RES_2_DU"
 
New "Load.BT_3034_M1" bus1="UC14783.1.2.3.4" phases=3 conn=delta model=2 kv=0.38 kw = 267.4758960158373 pf=0.92 status=variable vmaxpu=1.5 vminpu=0.93 daily="RES_2_DU" 
New "Load.BT_3034_M2" bus1="UC14783.1.2.3.4" phases=3 conn=delta model=3 kv=0.38 kw = 267.4758960158373 pf=0.92 status=variable vmaxpu=1.5 vminpu=0.93 daily="RES_2_DU"
 
New "Load.BT_684_M1" bus1="UC6236.1.2.3.4" phases=3 conn=delta model=2 kv=0.38 kw = 304.74526108658836 pf=0.92 status=variable vmaxpu=1.5 vminpu=0.93 daily="COM_1_DU" 
New "Load.BT_684_M2" bus1="UC6236.1.2.3.4" phases=3 conn=delta model=3 kv=0.38 kw = 304.74526108658836 pf=0.92 status=variable vmaxpu=1.5 vminpu=0.93 daily="COM_1_DU"
 
New "Load.BT_7327_M1" bus1="UC13253.1.2.4" phases=2 conn=delta model=2 kv=0.38 kw = 584.4843653679407 pf=0.92 status=variable vmaxpu=1.5 vminpu=0.93 daily="RES_2_DU" 
New "Load.BT_7327_M2" bus1="UC13253.1.2.4" phases=2 conn=delta model=3 kv=0.38 kw = 584.4843653679407 pf=0.92 status=variable vmaxpu=1.5 vminpu=0.93 daily="RES_2_DU"
 
New "Load.BT_1829_M1" bus1="UC15079.3.4" phases=1 conn=delta model=2 kv=0.22 kw = 513.2795564226454 pf=0.92 status=variable vmaxpu=1.5 vminpu=0.93 daily="RES_11_DU" 
New "Load.BT_1829_M2" bus1="UC15079.3.4" phases=1 conn=delta model=3 kv=0.22 kw = 513.2795564226454 pf=0.92 status=variable vmaxpu=1.5 vminpu=0.93 daily="RES_11_DU"
 
New "Load.BT_1959_M1" bus1="UC2860.2.4" phases=1 conn=delta model=2 kv=0.22 kw = 638.9701960378336 pf=0.92 status=variable vmaxpu=1.5 vminpu=0.93 daily="RES_2_DU" 
New "Load.BT_1959_M2" bus1="UC2860.2.4" phases=1 conn=delta model=3 kv=0.22 kw = 638.9701960378336 pf=0.92 status=variable vmaxpu=1.5 vminpu=0.93 daily="RES_2_DU"
 
New "Load.BT_3034_M1" bus1="UC14783.1.2.3.4" phases=3 conn=delta model=2 kv=0.38 kw = 687.6100318143972 pf=0.92 status=variable vmaxpu=1.5 vminpu=0.93 daily="RES_5_DU" 
New "Load.BT_3034_M2" bus1="UC14783.1.2.3.4" phases=3 conn=delta model=3 kv=0.38 kw = 687.6100318143972 pf=0.92 status=variable vmaxpu=1.5 vminpu=0.93 daily="RES_5_DU"
 
New "Load.BT_901_M1" bus1="UC5377.3.4" phases=1 conn=delta model=2 kv=0.22 kw = 0.0 pf=0.92 status=variable vmaxpu=1.5 vminpu=0.93 daily="COM_5_DU" 
New "Load.BT_901_M2" bus1="UC5377.3.4" phases=1 conn=delta model=3 kv=0.22 kw = 0.0 pf=0.92 status=variable vmaxpu=1.5 vminpu=0.93 daily="COM_5_DU"
 
New "Load.BT_1124_M1" bus1="UC15362.3.1.4" phases=2 conn=delta model=2 kv=0.38 kw = 0.0 pf=0.92 status=variable vmaxpu=1.5 vminpu=0.93 daily="RES_3_DU" 
New "Load.BT_1124_M2" bus1="UC15362.3.1.4" phases=2 conn=delta model=3 kv=0.38 kw = 0.0 pf=0.92 status=variable vmaxpu=1.5 vminpu=0.93 daily="RES_3_DU"
 
New "Load.BT_1124_M1" bus1="UC15362.1.2.4" phases=2 conn=delta model=2 kv=0.38 kw = 0.0 pf=0.92 status=variable vmaxpu=1.5 vminpu=0.93 daily="RES_3_DU" 
New "Load.BT_1124_M2" bus1="UC15362.1.2.4" phases=2 conn=delta model=3 kv=0.38 kw = 0.0 pf=0.92 status=variable vmaxpu=1.5 vminpu=0.93 daily="RES_3_DU"
 
New "Load.BT_2344_M1" bus1="UC2835.3.4" phases=1 conn=delta model=2 kv=0.22 kw = 0.0 pf=0.92 status=variable vmaxpu=1.5 vminpu=0.93 daily="RES_3_DU" 
New "Load.BT_2344_M2" bus1="UC2835.3.4" phases=1 conn=delta model=3 kv=0.22 kw = 0.0 pf=0.92 status=variable vmaxpu=1.5 vminpu=0.93 daily="RES_3_DU"
 
New "Load.BT_7439_M1" bus1="UC16096.2.4" phases=1 conn=delta model=2 kv=0.22 kw = 0.0 pf=0.92 status=variable vmaxpu=1.5 vminpu=0.93 daily="RES_7_DU" 
New "Load.BT_7439_M2" bus1="UC16096.2.4" phases=1 conn=delta model=3 kv=0.22 kw = 0.0 pf=0.92 status=variable vmaxpu=1.5 vminpu=0.93 daily="RES_7_DU"
 
New "Load.BT_6954_M1" bus1="UC16099.3.4" phases=1 conn=delta model=2 kv=0.22 kw = 0.0 pf=0.92 status=variable vmaxpu=1.5 vminpu=0.93 daily="COM_1_DU" 
New "Load.BT_6954_M2" bus1="UC16099.3.4" phases=1 conn=delta model=3 kv=0.22 kw = 0.0 pf=0.92 status=variable vmaxpu=1.5 vminpu=0.93 daily="COM_1_DU"
 
New "Load.BT_1112_M1" bus1="UC8981.3.4" phases=1 conn=delta model=2 kv=0.22 kw = 0.0 pf=0.92 status=variable vmaxpu=1.5 vminpu=0.93 daily="RES_7_DU" 
New "Load.BT_1112_M2" bus1="UC8981.3.4" phases=1 conn=delta model=3 kv=0.22 kw = 0.0 pf=0.92 status=variable vmaxpu=1.5 vminpu=0.93 daily="RES_7_DU"
 
New "Load.BT_2626_M1" bus1="UC16100.3.4" phases=1 conn=delta model=2 kv=0.22 kw = 0.0 pf=0.92 status=variable vmaxpu=1.5 vminpu=0.93 daily="RES_3_DU" 
New "Load.BT_2626_M2" bus1="UC16100.3.4" phases=1 conn=delta model=3 kv=0.22 kw = 0.0 pf=0.92 status=variable vmaxpu=1.5 vminpu=0.93 daily="RES_3_DU"
 
New "Load.BT_1516_M1" bus1="UC16103.3.4" phases=1 conn=delta model=2 kv=0.22 kw = 0.0 pf=0.92 status=variable vmaxpu=1.5 vminpu=0.93 daily="RES_3_DU" 
New "Load.BT_1516_M2" bus1="UC16103.3.4" phases=1 conn=delta model=3 kv=0.22 kw = 0.0 pf=0.92 status=variable vmaxpu=1.5 vminpu=0.93 daily="RES_3_DU"
 
New "Load.BT_2623_M1" bus1="UC15510.1.2.4" phases=2 conn=delta model=2 kv=0.38 kw = 0.0 pf=0.92 status=variable vmaxpu=1.5 vminpu=0.93 daily="RES_3_DU" 
New "Load.BT_2623_M2" bus1="UC15510.1.2.4" phases=2 conn=delta model=3 kv=0.38 kw = 0.0 pf=0.92 status=variable vmaxpu=1.5 vminpu=0.93 daily="RES_3_DU"
 
New "Load.BT_1124_M1" bus1="UC15362.1.2.3.4" phases=3 conn=delta model=2 kv=0.38 kw = 0.0 pf=0.92 status=variable vmaxpu=1.5 vminpu=0.93 daily="COM_5_DU" 
New "Load.BT_1124_M2" bus1="UC15362.1.2.3.4" phases=3 conn=delta model=3 kv=0.38 kw = 0.0 pf=0.92 status=variable vmaxpu=1.5 vminpu=0.93 daily="COM_5_DU"
 
New "Load.BT_2214_M1" bus1="UC11074.3.4" phases=1 conn=delta model=2 kv=0.22 kw = 0.0 pf=0.92 status=variable vmaxpu=1.5 vminpu=0.93 daily="COM_5_DU" 
New "Load.BT_2214_M2" bus1="UC11074.3.4" phases=1 conn=delta model=3 kv=0.22 kw = 0.0 pf=0.92 status=variable vmaxpu=1.5 vminpu=0.93 daily="COM_5_DU"
 
New "Load.BT_8544_M1" bus1="UC16080.2.4" phases=1 conn=delta model=2 kv=0.22 kw = 0.0 pf=0.92 status=variable vmaxpu=1.5 vminpu=0.93 daily="RES_7_DU" 
New "Load.BT_8544_M2" bus1="UC16080.2.4" phases=1 conn=delta model=3 kv=0.22 kw = 0.0 pf=0.92 status=variable vmaxpu=1.5 vminpu=0.93 daily="RES_7_DU"
 
New "Load.BT_387_M1" bus1="UC15581.1.2.3.4" phases=3 conn=delta model=2 kv=0.38 kw = 0.0 pf=0.92 status=variable vmaxpu=1.5 vminpu=0.93 daily="RES_3_DU" 
New "Load.BT_387_M2" bus1="UC15581.1.2.3.4" phases=3 conn=delta model=3 kv=0.38 kw = 0.0 pf=0.92 status=variable vmaxpu=1.5 vminpu=0.93 daily="RES_3_DU"
 
New "Load.BT_1113_M1" bus1="UC6951.3.4" phases=1 conn=delta model=2 kv=0.22 kw = 0.0 pf=0.92 status=variable vmaxpu=1.5 vminpu=0.93 daily="RES_7_DU" 
New "Load.BT_1113_M2" bus1="UC6951.3.4" phases=1 conn=delta model=3 kv=0.22 kw = 0.0 pf=0.92 status=variable vmaxpu=1.5 vminpu=0.93 daily="RES_7_DU"
 
New "Load.BT_539_M1" bus1="UC11814.1.2.4" phases=2 conn=delta model=2 kv=0.38 kw = 0.0 pf=0.92 status=variable vmaxpu=1.5 vminpu=0.93 daily="RES_3_DU" 
New "Load.BT_539_M2" bus1="UC11814.1.2.4" phases=2 conn=delta model=3 kv=0.38 kw = 0.0 pf=0.92 status=variable vmaxpu=1.5 vminpu=0.93 daily="RES_3_DU"
 
New "Load.BT_1858_M1" bus1="UC5368.1.2.3.4" phases=3 conn=delta model=2 kv=0.38 kw = 0.0 pf=0.92 status=variable vmaxpu=1.5 vminpu=0.93 daily="RES_3_DU" 
New "Load.BT_1858_M2" bus1="UC5368.1.2.3.4" phases=3 conn=delta model=3 kv=0.38 kw = 0.0 pf=0.92 status=variable vmaxpu=1.5 vminpu=0.93 daily="RES_3_DU"
 
New "Load.BT_539_M1" bus1="UC11814.3.1.4" phases=2 conn=delta model=2 kv=0.38 kw = 0.0 pf=0.92 status=variable vmaxpu=1.5 vminpu=0.93 daily="RES_7_DU" 
New "Load.BT_539_M2" bus1="UC11814.3.1.4" phases=2 conn=delta model=3 kv=0.38 kw = 0.0 pf=0.92 status=variable vmaxpu=1.5 vminpu=0.93 daily="RES_7_DU"
 
New "Load.BT_7327_M1" bus1="UC13253.1.2.4" phases=2 conn=delta model=2 kv=0.38 kw = 0.0 pf=0.92 status=variable vmaxpu=1.5 vminpu=0.93 daily="RES_3_DU" 
New "Load.BT_7327_M2" bus1="UC13253.1.2.4" phases=2 conn=delta model=3 kv=0.38 kw = 0.0 pf=0.92 status=variable vmaxpu=1.5 vminpu=0.93 daily="RES_3_DU"
 
New "Load.BT_2623_M1" bus1="UC15510.3.1.4" phases=2 conn=delta model=2 kv=0.38 kw = 0.0 pf=0.92 status=variable vmaxpu=1.5 vminpu=0.93 daily="RES_7_DU" 
New "Load.BT_2623_M2" bus1="UC15510.3.1.4" phases=2 conn=delta model=3 kv=0.38 kw = 0.0 pf=0.92 status=variable vmaxpu=1.5 vminpu=0.93 daily="RES_7_DU"
 
New "Load.BT_2215_M1" bus1="UC12303.2.4" phases=1 conn=delta model=2 kv=0.22 kw = 0.0 pf=0.92 status=variable vmaxpu=1.5 vminpu=0.93 daily="RES_7_DU" 
New "Load.BT_2215_M2" bus1="UC12303.2.4" phases=1 conn=delta model=3 kv=0.22 kw = 0.0 pf=0.92 status=variable vmaxpu=1.5 vminpu=0.93 daily="RES_7_DU"
 
New "Load.BT_358_M1" bus1="UC12262.1.4" phases=1 conn=delta model=2 kv=0.22 kw = 0.0 pf=0.92 status=variable vmaxpu=1.5 vminpu=0.93 daily="RES_7_DU" 
New "Load.BT_358_M2" bus1="UC12262.1.4" phases=1 conn=delta model=3 kv=0.22 kw = 0.0 pf=0.92 status=variable vmaxpu=1.5 vminpu=0.93 daily="RES_7_DU"
 
New "Load.BT_555_M1" bus1="UC15769.2.4" phases=1 conn=delta model=2 kv=0.22 kw = 708.3157987086062 pf=0.92 status=variable vmaxpu=1.5 vminpu=0.93 daily="RES_2_DU" 
New "Load.BT_555_M2" bus1="UC15769.2.4" phases=1 conn=delta model=3 kv=0.22 kw = 708.3157987086062 pf=0.92 status=variable vmaxpu=1.5 vminpu=0.93 daily="RES_2_DU"
 
New "Load.BT_1430_M1" bus1="UC9154.3.4" phases=1 conn=delta model=2 kv=0.22 kw = 1.6652746507463845 pf=0.92 status=variable vmaxpu=1.5 vminpu=0.93 daily="COM_1_DU" 
New "Load.BT_1430_M2" bus1="UC9154.3.4" phases=1 conn=delta model=3 kv=0.22 kw = 1.6652746507463845 pf=0.92 status=variable vmaxpu=1.5 vminpu=0.93 daily="COM_1_DU"
 
New "Load.BT_2920_M1" bus1="UC15771.1.2.3.4" phases=3 conn=delta model=2 kv=0.38 kw = 564.5281066030244 pf=0.92 status=variable vmaxpu=1.5 vminpu=0.93 daily="COM_1_DU" 
New "Load.BT_2920_M2" bus1="UC15771.1.2.3.4" phases=3 conn=delta model=3 kv=0.38 kw = 564.5281066030244 pf=0.92 status=variable vmaxpu=1.5 vminpu=0.93 daily="COM_1_DU"
 
New "Load.BT_7655_M1" bus1="UC15774.1.4" phases=1 conn=delta model=2 kv=0.22 kw = 39.626058669012934 pf=0.92 status=variable vmaxpu=1.5 vminpu=0.93 daily="RES_2_DU" 
New "Load.BT_7655_M2" bus1="UC15774.1.4" phases=1 conn=delta model=3 kv=0.22 kw = 39.626058669012934 pf=0.92 status=variable vmaxpu=1.5 vminpu=0.93 daily="RES_2_DU"
 
New "Load.BT_1880_M1" bus1="UC5019.1.4" phases=1 conn=delta model=2 kv=0.22 kw = 822.2407173820183 pf=0.92 status=variable vmaxpu=1.5 vminpu=0.93 daily="RES_2_DU" 
New "Load.BT_1880_M2" bus1="UC5019.1.4" phases=1 conn=delta model=3 kv=0.22 kw = 822.2407173820183 pf=0.92 status=variable vmaxpu=1.5 vminpu=0.93 daily="RES_2_DU"
 
New "Load.BT_1209_M1" bus1="UC15445.3.4" phases=1 conn=delta model=2 kv=0.22 kw = 911.3993493872974 pf=0.92 status=variable vmaxpu=1.5 vminpu=0.93 daily="RES_2_DU" 
New "Load.BT_1209_M2" bus1="UC15445.3.4" phases=1 conn=delta model=3 kv=0.22 kw = 911.3993493872974 pf=0.92 status=variable vmaxpu=1.5 vminpu=0.93 daily="RES_2_DU"
 
New "Load.BT_2215_M1" bus1="UC7160.1.4" phases=1 conn=delta model=2 kv=0.22 kw = 166.52746507463846 pf=0.92 status=variable vmaxpu=1.5 vminpu=0.93 daily="COM_1_DU" 
New "Load.BT_2215_M2" bus1="UC7160.1.4" phases=1 conn=delta model=3 kv=0.22 kw = 166.52746507463846 pf=0.92 status=variable vmaxpu=1.5 vminpu=0.93 daily="COM_1_DU"
 
New "Load.BT_628_M1" bus1="UC7914.1.4" phases=1 conn=delta model=2 kv=0.22 kw = 191.50658483583422 pf=0.92 status=variable vmaxpu=1.5 vminpu=0.93 daily="COM_1_DU" 
New "Load.BT_628_M2" bus1="UC7914.1.4" phases=1 conn=delta model=3 kv=0.22 kw = 191.50658483583422 pf=0.92 status=variable vmaxpu=1.5 vminpu=0.93 daily="COM_1_DU"
 
New "Load.BT_1234_M1" bus1="UC15448.1.4" phases=1 conn=delta model=2 kv=0.22 kw = 0.0 pf=0.92 status=variable vmaxpu=1.5 vminpu=0.93 daily="RES_2_DU" 
New "Load.BT_1234_M2" bus1="UC15448.1.4" phases=1 conn=delta model=3 kv=0.22 kw = 0.0 pf=0.92 status=variable vmaxpu=1.5 vminpu=0.93 daily="RES_2_DU"
 
New "Load.BT_1380_M1" bus1="UC10064.3.4" phases=1 conn=delta model=2 kv=0.22 kw = 639.7397369905436 pf=0.92 status=variable vmaxpu=1.5 vminpu=0.93 daily="RES_11_DU" 
New "Load.BT_1380_M2" bus1="UC10064.3.4" phases=1 conn=delta model=3 kv=0.22 kw = 639.7397369905436 pf=0.92 status=variable vmaxpu=1.5 vminpu=0.93 daily="RES_11_DU"
 
New "Load.BT_785_M1" bus1="UC9638.3.4" phases=1 conn=delta model=2 kv=0.22 kw = 944.4424115572673 pf=0.92 status=variable vmaxpu=1.5 vminpu=0.93 daily="RES_1_DU" 
New "Load.BT_785_M2" bus1="UC9638.3.4" phases=1 conn=delta model=3 kv=0.22 kw = 944.4424115572673 pf=0.92 status=variable vmaxpu=1.5 vminpu=0.93 daily="RES_1_DU"
 
New "Load.BT_7701_M1" bus1="UC15452.1.2.3.4" phases=3 conn=delta model=2 kv=0.38 kw = 1510.743486756118 pf=0.92 status=variable vmaxpu=1.5 vminpu=0.93 daily="RES_2_DU" 
New "Load.BT_7701_M2" bus1="UC15452.1.2.3.4" phases=3 conn=delta model=3 kv=0.38 kw = 1510.743486756118 pf=0.92 status=variable vmaxpu=1.5 vminpu=0.93 daily="RES_2_DU"
 
New "Load.BT_387_M1" bus1="UC15581.1.4" phases=1 conn=delta model=2 kv=0.22 kw = 0.0 pf=0.92 status=variable vmaxpu=1.5 vminpu=0.93 daily="RES_3_DU" 
New "Load.BT_387_M2" bus1="UC15581.1.4" phases=1 conn=delta model=3 kv=0.22 kw = 0.0 pf=0.92 status=variable vmaxpu=1.5 vminpu=0.93 daily="RES_3_DU"
 
New "Load.BT_3034_M1" bus1="UC14783.1.2.3.4" phases=3 conn=delta model=2 kv=0.38 kw = 0.0 pf=0.92 status=variable vmaxpu=1.5 vminpu=0.93 daily="RES_3_DU" 
New "Load.BT_3034_M2" bus1="UC14783.1.2.3.4" phases=3 conn=delta model=3 kv=0.38 kw = 0.0 pf=0.92 status=variable vmaxpu=1.5 vminpu=0.93 daily="RES_3_DU"
 
New "Load.BT_1124_M1" bus1="UC8867.1.4" phases=1 conn=delta model=2 kv=0.22 kw = 0.0 pf=0.92 status=variable vmaxpu=1.5 vminpu=0.93 daily="RES_3_DU" 
New "Load.BT_1124_M2" bus1="UC8867.1.4" phases=1 conn=delta model=3 kv=0.22 kw = 0.0 pf=0.92 status=variable vmaxpu=1.5 vminpu=0.93 daily="RES_3_DU"
 
New "Load.BT_121_M1" bus1="UC12650.2.3.4" phases=2 conn=delta model=2 kv=0.38 kw = 0.0 pf=0.92 status=variable vmaxpu=1.5 vminpu=0.93 daily="RES_7_DU" 
New "Load.BT_121_M2" bus1="UC12650.2.3.4" phases=2 conn=delta model=3 kv=0.38 kw = 0.0 pf=0.92 status=variable vmaxpu=1.5 vminpu=0.93 daily="RES_7_DU"
 
New "Load.BT_239_M1" bus1="UC16074.1.2.3.4" phases=3 conn=delta model=2 kv=0.38 kw = 0.0 pf=0.92 status=variable vmaxpu=1.5 vminpu=0.93 daily="RES_3_DU" 
New "Load.BT_239_M2" bus1="UC16074.1.2.3.4" phases=3 conn=delta model=3 kv=0.38 kw = 0.0 pf=0.92 status=variable vmaxpu=1.5 vminpu=0.93 daily="RES_3_DU"
 
New "Load.BT_8152_M1" bus1="UC16078.1.2.4" phases=2 conn=delta model=2 kv=0.38 kw = 0.0 pf=0.92 status=variable vmaxpu=1.5 vminpu=0.93 daily="RES_7_DU" 
New "Load.BT_8152_M2" bus1="UC16078.1.2.4" phases=2 conn=delta model=3 kv=0.38 kw = 0.0 pf=0.92 status=variable vmaxpu=1.5 vminpu=0.93 daily="RES_7_DU"
 
New "Load.BT_8398_M1" bus1="UC15580.2.4" phases=1 conn=delta model=2 kv=0.22 kw = 490.37247602903506 pf=0.92 status=variable vmaxpu=1.5 vminpu=0.93 daily="RES_2_DU" 
New "Load.BT_8398_M2" bus1="UC15580.2.4" phases=1 conn=delta model=3 kv=0.22 kw = 490.37247602903506 pf=0.92 status=variable vmaxpu=1.5 vminpu=0.93 daily="RES_2_DU"
 
New "Load.BT_2466_M1" bus1="UC15707.1.4" phases=1 conn=delta model=2 kv=0.22 kw = 331.8682413529833 pf=0.92 status=variable vmaxpu=1.5 vminpu=0.93 daily="RES_2_DU" 
New "Load.BT_2466_M2" bus1="UC15707.1.4" phases=1 conn=delta model=3 kv=0.22 kw = 331.8682413529833 pf=0.92 status=variable vmaxpu=1.5 vminpu=0.93 daily="RES_2_DU"
 
New "Load.BT_2214_M1" bus1="UC11074.1.4" phases=1 conn=delta model=2 kv=0.22 kw = 84.92900718806561 pf=0.92 status=variable vmaxpu=1.5 vminpu=0.93 daily="COM_1_DU" 
New "Load.BT_2214_M2" bus1="UC11074.1.4" phases=1 conn=delta model=3 kv=0.22 kw = 84.92900718806561 pf=0.92 status=variable vmaxpu=1.5 vminpu=0.93 daily="COM_1_DU"
 
New "Load.BT_1112_M1" bus1="UC8981.2.4" phases=1 conn=delta model=2 kv=0.22 kw = 460.65293202727537 pf=0.92 status=variable vmaxpu=1.5 vminpu=0.93 daily="RES_2_DU" 
New "Load.BT_1112_M2" bus1="UC8981.2.4" phases=1 conn=delta model=3 kv=0.22 kw = 460.65293202727537 pf=0.92 status=variable vmaxpu=1.5 vminpu=0.93 daily="RES_2_DU"
 
New "Load.BT_6942_M1" bus1="UC15761.1.2.3.4" phases=3 conn=delta model=2 kv=0.38 kw = 346.72801335386316 pf=0.92 status=variable vmaxpu=1.5 vminpu=0.93 daily="RES_2_DU" 
New "Load.BT_6942_M2" bus1="UC15761.1.2.3.4" phases=3 conn=delta model=3 kv=0.38 kw = 346.72801335386316 pf=0.92 status=variable vmaxpu=1.5 vminpu=0.93 daily="RES_2_DU"
 
New "Load.BT_2085_M1" bus1="UC15760.1.2.3.4" phases=3 conn=delta model=2 kv=0.38 kw = 11.656922555224691 pf=0.92 status=variable vmaxpu=1.5 vminpu=0.93 daily="COM_1_DU" 
New "Load.BT_2085_M2" bus1="UC15760.1.2.3.4" phases=3 conn=delta model=3 kv=0.38 kw = 11.656922555224691 pf=0.92 status=variable vmaxpu=1.5 vminpu=0.93 daily="COM_1_DU"
 
New "Load.BT_702_M1" bus1="UC8051.1.2.4" phases=2 conn=delta model=2 kv=0.38 kw = 599.3441373688206 pf=0.92 status=variable vmaxpu=1.5 vminpu=0.93 daily="RES_2_DU" 
New "Load.BT_702_M2" bus1="UC8051.1.2.4" phases=2 conn=delta model=3 kv=0.38 kw = 599.3441373688206 pf=0.92 status=variable vmaxpu=1.5 vminpu=0.93 daily="RES_2_DU"
 
New "Load.BT_7425_M1" bus1="UC15763.3.4" phases=1 conn=delta model=2 kv=0.22 kw = 0.0 pf=0.92 status=variable vmaxpu=1.5 vminpu=0.93 daily="RES_2_DU" 
New "Load.BT_7425_M2" bus1="UC15763.3.4" phases=1 conn=delta model=3 kv=0.22 kw = 0.0 pf=0.92 status=variable vmaxpu=1.5 vminpu=0.93 daily="RES_2_DU"
 
New "Load.BT_854_M1" bus1="UC13201.2.4" phases=1 conn=delta model=2 kv=0.22 kw = 554.764821366181 pf=0.92 status=variable vmaxpu=1.5 vminpu=0.93 daily="RES_2_DU" 
New "Load.BT_854_M2" bus1="UC13201.2.4" phases=1 conn=delta model=3 kv=0.22 kw = 554.764821366181 pf=0.92 status=variable vmaxpu=1.5 vminpu=0.93 daily="RES_2_DU"
 
New "Load.BT_854_M1" bus1="UC13201.3.4" phases=1 conn=delta model=2 kv=0.22 kw = 485.4192186954084 pf=0.92 status=variable vmaxpu=1.5 vminpu=0.93 daily="RES_2_DU" 
New "Load.BT_854_M2" bus1="UC13201.3.4" phases=1 conn=delta model=3 kv=0.22 kw = 485.4192186954084 pf=0.92 status=variable vmaxpu=1.5 vminpu=0.93 daily="RES_2_DU"
 
New "Load.BT_3034_M1" bus1="UC14783.1.2.3.4" phases=3 conn=delta model=2 kv=0.38 kw = 498.4018881205398 pf=0.92 status=variable vmaxpu=1.5 vminpu=0.93 daily="RES_11_DU" 
New "Load.BT_3034_M2" bus1="UC14783.1.2.3.4" phases=3 conn=delta model=3 kv=0.38 kw = 498.4018881205398 pf=0.92 status=variable vmaxpu=1.5 vminpu=0.93 daily="RES_11_DU"
 
New "Load.BT_1436_M1" bus1="UC14964.2.4" phases=1 conn=delta model=2 kv=0.22 kw = 865.2991927116863 pf=0.92 status=variable vmaxpu=1.5 vminpu=0.93 daily="RES_1_DU" 
New "Load.BT_1436_M2" bus1="UC14964.2.4" phases=1 conn=delta model=3 kv=0.22 kw = 865.2991927116863 pf=0.92 status=variable vmaxpu=1.5 vminpu=0.93 daily="RES_1_DU"
 
New "Load.BT_490_M1" bus1="UC6077.1.4" phases=1 conn=delta model=2 kv=0.22 kw = 406.16710135738253 pf=0.92 status=variable vmaxpu=1.5 vminpu=0.93 daily="RES_2_DU" 
New "Load.BT_490_M2" bus1="UC6077.1.4" phases=1 conn=delta model=3 kv=0.22 kw = 406.16710135738253 pf=0.92 status=variable vmaxpu=1.5 vminpu=0.93 daily="RES_2_DU"
 
New "Load.BT_18_M1" bus1="UC5043.1.4" phases=1 conn=delta model=2 kv=0.22 kw = 116.5692255522469 pf=0.92 status=variable vmaxpu=1.5 vminpu=0.93 daily="COM_1_DU" 
New "Load.BT_18_M2" bus1="UC5043.1.4" phases=1 conn=delta model=3 kv=0.22 kw = 116.5692255522469 pf=0.92 status=variable vmaxpu=1.5 vminpu=0.93 daily="COM_1_DU"
 
New "Load.BT_1105_M1" bus1="UC8362.3.4" phases=1 conn=delta model=2 kv=0.22 kw = 571.1228013030643 pf=0.92 status=variable vmaxpu=1.5 vminpu=0.93 daily="RES_13_DU" 
New "Load.BT_1105_M2" bus1="UC8362.3.4" phases=1 conn=delta model=3 kv=0.22 kw = 571.1228013030643 pf=0.92 status=variable vmaxpu=1.5 vminpu=0.93 daily="RES_13_DU"
 
New "Load.BT_3010_M1" bus1="UC14890.1.2.3.4" phases=3 conn=delta model=2 kv=0.38 kw = 485.4192186954084 pf=0.92 status=variable vmaxpu=1.5 vminpu=0.93 daily="RES_2_DU" 
...